* Library of Diode Model Parameters
*
*   Copyright 1992, 1995 by CAD Department 
*   of St-Peterburg Electrical Engineering University.
*   Neither this library nor any part may be copied without the express
*   written consent of CAD Dep. of S-PbEEU
*   tel. (812) 234.36.75  A.Isakov
*
* Release date: Dec '92  
* Revision: Nov '95
*
*
.Model KD102A   D(Is=21.66p N=1.28 Rs=1.79 Cjo=3.27p Tt=6.12e-9
+		  M=0.32 Vj=0.71 Fc=0.5 Bv=250 IBv=1e-11 Eg=1.11 Xti=3)
.model KD102B  D(Is=910.8f Rs=6.325 N=1 Xti=3 Eg=1.11 Bv=300.2 Ibv=1.521m
+                 Cjo=3.27p Vj=.71 M=.32 Fc=.5 Tt=6.12e-9)
.Model KD103A   D(Is=67.08p N=1.21 Rs=1.43 Cjo=8.58p Tt=4.15e-9
+		  M=0.31 Vj=0.72 Fc=0.5 Bv=75 IBv=1e-11 Eg=1.11 Xti=3)
.Model KD104A   D(Is=5.812p N=1.15 Rs=8.1 Cjo=41.2p Tt=8.28e-9 
+		  M=0.33 Vj=0.71 Fc=0.5 Bv=300 IBv=1e-11 Eg=1.11 Xti=3)
.Model KD105B   D(Is=84.26p N=1.11 Rs=0.12 Cjo=120p  Tt=1.08e-8 
+		  M=0.33 Vj=0.71 Fc=0.5 Bv=400 IBv=1e-11 Eg=1.11 Xti=3)
.Model KD105A   D(Is=8.426p N=1.15 Rs=4.52 Cjo=51.2p  Tt=1.08e-8 
+		  M=0.33 Vj=0.71 Fc=0.5 Bv=100 IBv=1e-11 Eg=1.11 Xti=3)
.Model KD106A   D(Is=114.3p N=1.23 Rs=0.3 Cjo=130p Tt=3.85e-8 
+		  M=0.33 Vj=0.71 Fc=0.5 Bv=100 IBv=1e-10 Eg=1.11 Xti=3)
.Model KD202D   D(Is=4.012n N=1.56 Rs=4.7e-2 Cjo=82p Tt=3.19e-7 
+		  M=0.38 Vj=0.75 Fc=0.5 Bv=200 IBv=1e-10 Eg=1.11 Xti=3)
.model KD202V   D(Is=4.012n Rs=4.7e-2 N=1.56 Xti=3 Eg=1.11 Bv=100 Ibv=1e-10
+                 Cjo=82p Vj=.75 M=.38 Fc=.5 Tt=3.12e-7)
.model KD202J   D(Is=4.012n Rs=4.7e-2 N=1.56 Xti=3 Eg=1.11 Bv=300 Ibv=1e-10
+                 Cjo=82p Vj=.75 M=.38 Fc=.5 Tt=3.12e-7)
.model KD202K   D(Is=4.012n Rs=4.7e-2 N=1.56 Xti=3 Eg=1.11 Bv=400 Ibv=1e-10
+                 Cjo=82p Vj=.75 M=.38 Fc=.5 Tt=3.12e-7)
.model KD202M   D(Is=4.012n Rs=4.7e-2 N=1.56 Xti=3 Eg=1.11 Bv=500 Ibv=1e-10
+                 Cjo=82p Vj=.75 M=.38 Fc=.5 Tt=3.12e-7)
.model KD202P   D(Is=4.012n Rs=4.7e-2 N=1.56 Xti=3 Eg=1.11 Bv=600 Ibv=1e-10
+                 Cjo=82p Vj=.75 M=.38 Fc=.5 Tt=3.12e-7)
.Model KD203A   D(Is=2.98n N=1.52 Rs=9.3e-3 Cjo=21.2p Tt=9.09e-7 
+		  M=0.28 Vj=0.73 Fc=0.5 Bv=420 IBv=1e-10 Eg=1.11 Xti=3)
.model KD203B   D(Is=303.3f Rs=30.57m N=1 Xti=3 Eg=1.11 Bv=560 Ibv=7.607u
+                 Cjo=21.2p Vj=.73 M=.28 Fc=.5 Tt=9.09e-7)
.model KD203V   D(Is=268.8f Rs=14.95m N=1 Xti=3 Eg=1.11 Bv=560 Ibv=7.607u
+                 Cjo=21.2p Vj=.73 M=.28 Fc=.5 Tt=9.09e-7)
.model KD203G   D(Is=303.3f Rs=30.57m N=1 Xti=3 Eg=1.11 Bv=999.9 Ibv=7.607u
+                 Cjo=21.2p Vj=.73 M=.28 Fc=.5 Tt=9.09e-7)
.model KD203D   D(Is=268.8f Rs=14.95m N=1 Xti=3 Eg=1.11 Bv=720 Ibv=7.607u
+                 Cjo=21.2p Vj=.73 M=.28 Fc=.5 Tt=9.09e-7)
.Model KD204A   D(Is=4.110n N=1.52 Rs=7.5e-2 Cjo=31.5p Tt=1.16e-7 
+		  M=0.35 Vj=0.68 Fc=0.5 Bv=400 IBv=1e-10 Eg=1.11 Xti=3)
.model KD204B   D(Is=6.335f Rs=64.96m N=1 Xti=3 Eg=1.11 Bv=200.1 Ibv=161.7u
+                 Cjo=35p Vj=.75 M=.3333 Fc=.5 Tt=1.16e-7)
.model KD204V   D(Is=5.849f Rs=23.7m N=1 Xti=3 Eg=1.11 Bv=50.12 Ibv=517.3u
+                 Cjo=35p Vj=.75 M=.3333 Fc=.5 Tt=1.16e-7)
.Model KD208A   D(Is=281p N=1.31 Rs=0.065 Cjo=96.3p Tt=2.23e-7 
+		  M=0.38 Vj=0.68 Fc=0.5 Bv=100 IBv=1e-10 Eg=1.11 Xti=3)
.Model KD209A   D(Is=62.2p N=1.23 Rs=0.17 Cjo=16.2  Tt=7.21e-7 
+		  M=0.35 Vj=0.68 Fc=0.5 Bv=400 IBv=1e-10 Eg=1.11 Xti=3)
.Model KD212A   D(Is=1.26p N=1.1 Rs=0.11 Cjo=140.7p Tt=1.27e-8 
+		  M=0.26 Vj=0.73 Fc=0.5 Bv=200 IBv=1e-10 Eg=1.11 Xti=3)
.model KD212B   D(Is=8.272p Rs=.107 N=1 Xti=3 Eg=1.11 Bv=100.2 Ibv=783.8u
+                 Cjo=150p Vj=.75 M=.25 Fc=.5 Tt=360.7n)
.Model KD213A   D(Is=157.90p N=1.12 Rs=12m Cjo=275.1p Tt=224n 
+		  M=0.321 Vj=0.72 Fc=0.5 Bv=200 IBv=1e-10 Eg=1.11 Xti=3)
.model KD213B   D(Is=124.72p Rs=25.34m N=1 Xti=3 Eg=1.11 Bv=200.1 Ibv=258.6u
+                 Cjo=249.6p Vj=.75 M=.33 Fc=.5 Tt=173.1n)
.model KD213V   D(Is=20.83p Rs=19.59m N=1 Xti=3 Eg=1.11 Bv=100.1 Ibv=258.6u
+                 Cjo=2.496n Vj=.75 M=.3333 Fc=.5 Tt=252.5n)
.model KD213G   D(Is=64.72p Rs=25.34m N=1 Xti=3 Eg=1.11 Bv=200.1 Ibv=258.6u
+                 Cjo=2.496n Vj=.75 M=.3333 Fc=.5 Tt=173.1n)
.Model KD219A   D(Is=57.60n N=1.12 Rs=3m Cjo=63.1p  Tt=1.23n 
+		  M=0.33 Vj=0.54 Fc=0.5 Bv=15 IBv=1e-11 Eg=1.11 Xti=3)
.Model KD220A   D(Is=11.20n N=1.25 Rs=7.1e-2 Cjo=164.5p Tt=1.23e-9 
+		  M=0.33 Vj=0.65 Fc=0.5 Bv=400 IBv=1e-11 Eg=1.11 Xti=3)
.Model KD503A   D(Is=7.920e-13 N=1.11 Rs=2.3 Cjo=1.45p  Tt=2.19e-9 
+		  M=0.27 Vj=0.71 Fc=0.5 Bv=30 IBv=1e-11 Eg=1.11 Xti=3)
.Model KD509A   D(Is=1.14p N=1.12 Rs=2.1 Cjo=2.15p  Tt=3.25e-9 
+		  M=0.33 Vj=0.71 Fc=0.5 Bv=50  IBv=1e-11 Eg=1.11 Xti=3)
.model KD510A   D(Is=528.2f Rs=1.302 N=1 Xti=3 Eg=1.11 Bv=70.23 Ibv=3.233m
+                 Cjo=3p Vj=.75 M=.25 Fc=.5 Tt=1.443n)
.Model KD512A   D(Is=2.120f N=1.0  Rs=9.2 Cjo=0.85p  Tt=.961e-9 
+		  M=0.25 Vj=0.69 Fc=0.5 Bv=15 IBv=1e-11 Eg=1.11 Xti=3)
.Model KD513A   D(Is=568.0f N=1.11 Rs=1.6 Cjo=1.81p  Tt=.850e-9 
+		   M=0.31 Vj=0.69 Fc=0.5 Bv=50 IBv=1e-11 Eg=1.11 Xti=3)
.Model KD520A   D(Is=618.0f N=1.12 Rs=6.3  Cjo=2.35p  Tt=1.44e-9 
+		  M=0.33 Vj=0.68 Fc=0.5 Bv=15 IBv=1e-11 Eg=1.11 Xti=3)
.Model KD521A   D(Is=115f  N=1.0  Rs=3.21 Cjo=2.25p  Tt=3.12e-9 
+		  M=0.26 Vj=0.68 Fc=0.5 Bv=75 IBv=1e-11 Eg=1.11 Xti=3)
.Model KD522A   D(Is=227f N=1.1  Rs=1.17 Cjo=1.83p  Tt=2.38e-9 
+		  M=0.25 Vj=0.68 Fc=0.5 Bv=50 IBv=1e-11 Eg=1.11 Xti=3)
.model KD522B   D(Is=72.71f Rs=2.662 N=1 Xti=3 Eg=1.11 Bv=50.23 Ibv=862.1u
+                 Cjo=2.6p Vj=.75 M=.15 Fc=.5 Tt=1.443n)
.model KD906A   D(Is=718.1f Rs=2.763 N=1 Xti=3 Eg=1.11 Bv=140.3 Ibv=1.847m
+                 Cjo=27.15p Vj=.75 M=.15 Fc=.5 Tt=179.8n)
*
.Model D237A    D(Is=31.69p N=1  Rs=91.07m Cjo=13p  Tt=721.3n 
+		  M=0.25 Vj=0.75 Fc=0.5 Bv=200 IBv=1e-11 Eg=1.11 Xti=3)
.model D237B    D(Is=31.69p Rs=91.07m N=1 Xti=3 Eg=1.11 Bv=400.1 Ibv=158.5u
+                 Cjo=15p Vj=.75 M=.3333 Fc=.5 Tt=721.3n)
.model D237V    D(Is=76.09p Rs=.4451 N=1 Xti=3 Eg=1.11 Bv=600.1 Ibv=158.5u
+                 Cjo=15p Vj=.75 M=.3333 Fc=.5 Tt=721.3n)
.model D237E    D(Is=28.72p Rs=51.27m N=1 Xti=3 Eg=1.11 Bv=200.1 Ibv=158.5u
+                 Cjo=15p Vj=.75 M=.3333 Fc=.5 Tt=721.3n)
.model D237J    D(Is=28.72p Rs=51.27m N=1 Xti=3 Eg=1.11 Bv=400.1 Ibv=158.5u
+                 Cjo=15p Vj=.75 M=.3333 Fc=.5 Tt=721.3n)
*
.Model K2DC523A  D(Is=20.23f N=1.1 Rs=3.122 Cjo=1.564p Tt=271.3p  
+		  M=0.15 Vj=0.75 Fc=0.5 Bv=70 IBv=43.11m Eg=1.11 Xti=3)
.model K2DC523B  D(Is=20.23f Rs=3.122 N=1 Xti=3 Eg=1.11 Bv=70.33 Ibv=43.11m
+                 Cjo=1.564p Vj=.75 M=.15 Fc=.5 Tt=721.3p)
.Model K2DC627A  D(Is=660.2f N=1.1 Rs=2.239 Cjo=3.5p Tt=14.6n 
+		  M=0.25 Vj=0.75 Fc=0.5 Bv=60 IBv=1e-11 Eg=1.11 Xti=3)
*
* Zener diodes
*
.Model D814A   D(Is=.3920p N=1.19 Rs=1.25 Cjo=41.15p Tt=49.11n
+                M=0.41 Vj=0.73 Fc=0.5 Bv=8 IBv=0.5u Eg=1.11 Xti=3)
.Model D814B   D(Is=.3920p N=1.19 Rs=1.54 Cjo=38.39p Tt=58.13n
+                M=0.45 Vj=0.76 Fc=0.5 Bv=9 IBv=0.5u  Eg=1.11 Xti=3)
.Model D814V   D(Is=.5232p N=1.26 Rs=2.5 Cjo=37.56p Tt=58.34n 
+                M=0.43 Vj=0.76 Fc=0.5 Bv=10 IBv=1u  Eg=1.11 Xti=3)
.Model D814G   D(Is=.1067p N=1.12 Rs=3.4 Cjo=28.08p Tt=68.87n 
+                M=0.43 Vj=0.75 Fc=0.5 Bv=11 IBv=1u Eg=1.11 Xti=3)
.Model D814D   D(Is=.5235p N=1.17 Rs=3.8 Cjo=29.15Ep Tt=59.96n 
+                M=0.41 Vj=0.71 Fc=0.5 Bv=13 IBv=1u Eg=1.11 Xti=3)
.Model D815A   D(Is=.1221e-11 N=1.67 Rs=0.24 Cjo=73.15p Tt=389.8n 
+                M=0.37 Vj=0.78 Fc=0.5 Bv=5.6 IBv=5u Eg=1.11 Xti=3)
.Model D815B   D(Is=.4173p N=1.22 Rs=0.27 Cjo=88.12p Tt=236.4n 
+                M=0.36 Vj=0.78 Fc=0.5 Bv=6.8 IBv=5u Eg=1.11 Xti=3)
.Model D815V   D(Is=.5225e-10 N=1.84 Rs=0.35 Cjo=76.32p Tt=245.24n 
+                M=0.31 Vj=0.73 Fc=0.5 Bv=8.2 IBv=5u Eg=1.11 Xti=3)
.Model D815G   D(Is=.9373e-10 N=1.55 Rs=0.6 Cjo=63.60p Tt=250.97n 
+                M=0.38 Vj=0.71 Fc=0.5 Bv=10 IBv=5u Eg=1.11 Xti=3)
.Model D815D   D(Is=.5227e-10 N=1.46 Rs=0.7 Cjo=73.31p Tt=217.3n 
+                M=0.39 Vj=0.74 Fc=0.5 Bv=12 IBv=5u Eg=1.11 Xti=3)
.Model D815E   D(Is=.4646e-10 N=1.39 Rs=0.9 Cjo=72.86p Tt=118.9n 
+                M=0.39 Vj=0.78 Fc=0.5 Bv=15 IBv=5u Eg=1.11 Xti=3)
.Model D815J   D(Is=.1996e-10 N=1.32 Rs=1.1 Cjo=82.14p Tt=222.9n 
+               M=0.42 Vj=0.75 Fc=0.5 Bv=18 IBv=5u Eg=1.11 Xti=3)
.Model D816A   D(Is=.4599e-11 N=1.25 Rs=2.4 Cjo=105.9p Tt=213.6n 
+                M=0.41 Vj=0.71 Fc=0.5 Bv=22 IBv=10u Eg=1.11 Xti=3)
.Model D816B   D(Is=.4279p N=1.14 Rs=2.8 Cjo=133.2p Tt=220.4 
+                M=0.41 Vj=0.73 Fc=0.5 Bv=27 IBv=10u Eg=1.11 Xti=3)
.Model D816G   D(Is=3.337p N=1.23 Rs=4.6 Cjo=103.5p Tt=203.5n 
+                M=0.39 Vj=0.71 Fc=0.5 Bv=39 IBv=15u Eg=1.11 Xti=3)
.Model D816D   D(Is=1.471p N=1.18 Rs=5.6 Cjo=82.24p Tt=207.4n 
+                M=0.40 Vj=0.70 Fc=0.5 Bv=47 IBv=15u Eg=1.11 Xti=3)
.Model D817A   D(Is=10.10p N=1.47 Rs=12 Cjo=57.00p Tt=500.0n  
+                M=0.34 Vj=0.80 Fc=0.5 Bv=56 IBv=20u Eg=1.11 Xti=3)
.Model D817B   D(Is=12.00p N=1.43 Rs=14 Cjo=68.00p Tt=500n  
+                M=0.35 Vj=0.8 Fc=0.5 Bv=68 IBv=20u Eg=1.11 Xti=3)
.Model D817V   D(Is=12.22p N=1.28 Rs=16 Cjo=54.48p Tt=414.1n
+                M=0.43 Vj=0.78 Fc=0.5 Bv=82 IBv=30u Eg=1.11 Xti=3)
.Model D817G   D(Is=29.34p N=1.27 Rs=18 Cjo=82.0p Tt=500.0n 
+                M=0.38 Vj=0.8 Fc=0.5 Bv=100 IBv=50u Eg=1.11 Xti=3)
.Model 2S191G  D(Is=47.47e-15 N=1.27 Rs=9 Cjo=10.69p Tt=4.337n  
+                M=0.39 Vj=0.79 Fc=0.5 Bv=9.1 IBv=1u Eg=1.11 Xti=3)
.Model 2S211G  D(Is=418.2e-15 N=1.39 Rs=9 Cjo=10.17p Tt=7.934n  
+                M=0.41 Vj=0.69 Fc=0.5 Bv=11 IBv=3u Eg=1.11 Xti=3)
.Model 2S522A  D(Is=41.68e-15 N=1.06 Rs=2 Cjo=57.24p Tt=32.94n
+                M=0.39 Vj=0.72 Fc=0.5 Bv=22 IBv=5u Eg=1.11 Xti=3)
.Model 2S527A  D(Is=25.00e-15 N=1.11 Rs=4 Cjo=47.42p Tt=256.6n  
+                M=0.39 Vj=0.68 Fc=0.5 Bv=27 IBv=5u Eg=1.11 Xti=3)
.Model KS133A  D(Is=89.00e-15 N=1.16 Rs=25 Cjo=72.00p Tt=57.00n
+                M=0.47 Vj=0.80 Fc=0.5 Bv=3.3 IBv=5u Eg=1.11 Xti=3)
.Model 2S133A  D(Is=193.4e-15 N=1.85 Rs=22 Cjo=84.51p Tt=46.61n  
+                M=0.38 Vj=0.73 Fc=0.5 Bv=3.3 IBv=5u Eg=1.11 Xti=3)
.Model KS139A  D(Is=400.0e-15 N=1.35 Rs=30 Cjo=85.00p Tt=72.00n
+                M=0.45 Vj=0.80 Fc=0.5 Bv=3.9 IBv=5u Eg=1.11 Xti=3)
.Model KS147A  D(Is=500.0e-15 N=1.35 Rs=22 Cjo=85.00p Tt=75.00n
+                M=0.45 Vj=0.80 Fc=0.5 Bv=4.7 IBv=5u Eg=1.11 Xti=3)
.Model 2S147A  D(Is=1.236p N=1.87 Rs=20.2 Cjo=87.60p Tt=104.0n
+                M=0.3751 Vj=0.73 Fc=0.5 Bv=4.7 IBv=5u Eg=1.11 Xti=3)
.Model KS156A  D(Is=3.600p N=1.52 Rs=13 Cjo=94.00p Tt=160.0n
+                M=0.41 Vj=0.80 Fc=0.5 Bv=5.6 IBv=5u Eg=1.11 Xti=3) 
.Model KS168A  D(Is=7.300p N=1.35 Rs=5.8 Cjo=62.00p Tt=250.0n
+                M=0.50 Vj=0.80 Fc=0.5 Bv=6.8 IBv=5u Eg=1.11 Xti=3)
.Model 2S168A  D(Is=7.034p N=1.26 Rs=5.8 Cjo=0.52p Tt=210.0n
+                M=0.31 Vj=0.75 Fc=0.5 Bv=6.8 IBv=5u Eg=1.11 Xti=3)


*** Zener Diodes ***

* The parameters Ibv, Ibvl, Nbv, and Nbvl, were characterized by matching the
* manufacturer's Zener impedance at three current levels.  The parameter Tbv1
* is calculated directly.  The remaining parameters were characterize using
* the Parts option.
*
.model D2C133A  D(Is=11.47f Rs=0.2655 Ikf=0 N=1 Xti=3 Eg=1.11 Cjo=220p M=.5959
+         Vj=.75 Fc=.5 Isr=2.035n Nr=2 Bv=3.371 Ibv=47.97m Nbv=3)
*         Ibvl=48.16m  
*         Tbv1=-1.1m)
*
.model D2C139A  D(Is=31.47f Rs=9.494 Ikf=0 N=1 Xti=3 Eg=1.11 Cjo=220p M=.5959
+         Vj=.75 Fc=.5 Isr=2.035n Nr=2 Bv=3.928 Ibv=43.84m 
*         Nbv=60 Ibvl=3m Nbvl=180 
+         Tbv1=-1.0m)
*
.model D2C147A  D(Is=31.47f Rs=9.494 Ikf=0 N=1 Xti=3 Eg=1.11 Cjo=220p M=.5959
+         Vj=.75 Fc=.5 Isr=2.035n Nr=2 Bv=4.73 Ibv=47.03m 
*         Nbv=56 Ibvl=3m Nbvl=160 
+         Tbv1=-900u)
*
.model D2C156A  D(Is=31.47f Rs=9.494 Ikf=0 N=1 Xti=3 Eg=1.11 Cjo=220p M=.5959
+         Vj=.75 Fc=.5 Isr=2.035n Nr=2 Bv=5.635 Ibv=57.48m 
*         Nbv=46 Ibvl=3m Nbvl=160 
+         Tbv1=500u)
*
.model D2C168A  D(Is=31.47f Rs=9.494 Ikf=0 N=1 Xti=3 Eg=1.11 Cjo=220p M=.5959
+         Vj=.75 Fc=.5 Isr=2.035n Nr=2 Bv=6.848 Ibv=95.79m 
*         Nbv=28 Ibvl=3m Nbvl=120 
+         Tbv1=600u)
*
.model D2C433A  D(Is=31.47f Rs=9.494 Ikf=0 N=1 Xti=3 Eg=1.11 Cjo=220p M=.5959
+         Vj=.75 Fc=.5 Isr=2.035n Nr=2 Bv=3.3 Ibv=60m 
*         Nbv=14 Ibvl=3m Nbvl=180 
+         Tbv1=-1m)
*
.model D2C439A  D(Is=31.47f Rs=9.494 Ikf=0 N=1 Xti=3 Eg=1.11 Cjo=220p M=.5959
+         Vj=.75 Fc=.5 Isr=2.035n Nr=2 Bv=3.9 Ibv=51m 
*         Nbv=12 Ibvl=3m Nbvl=180 
+         Tbv1=-1m)
*
.model D2C447A  D(Is=31.47f Rs=9.494 Ikf=0 N=1 Xti=3 Eg=1.11 Cjo=220p M=.5959
+         Vj=.75 Fc=.5 Isr=2.035n Nr=2 Bv=4.7 Ibv=43m 
*         Nbv=10 Ibvl=3m Nbvl=180 
+         Tbv1=-800u)
*
.model D2C456A  D(Is=31.47f Rs=9.494 Ikf=0 N=1 Xti=3 Eg=1.11 Cjo=220p M=.5959
+         Vj=.75 Fc=.5 Isr=2.035n Nr=2 Bv=5.6 Ibv=36m 
*         Nbv=7 Ibvl=3m Nbvl=145 
+         Tbv1=500u)
*
.model D2C468A  D(Is=31.47f Rs=9.494 Ikf=0 N=1 Xti=3 Eg=1.11 Cjo=220p M=.5959
+         Vj=.75 Fc=.5 Isr=2.035n Nr=2 Bv=6.8 Ibv=29m 
*         Nbv=5 Ibvl=3m Nbvl=70 
+         Tbv1=650u)
*
.model D2C482A  D(Is=31.47f Rs=9.494 Ikf=0 N=1 Xti=3 Eg=1.11 Cjo=220p M=.5959
+         Vj=.75 Fc=.5 Isr=2.035n Nr=2 Bv=8.2 Ibv=5m 
*         Nbv=25 Ibvl=1m Nbvl=200 
+         Tbv1=800u)
*
.model D2C510A  D(Is=31.47f Rs=9.494 Ikf=0 N=1 Xti=3 Eg=1.11 Cjo=220p M=.5959
+         Vj=.75 Fc=.5 Isr=2.035n Nr=2 Bv=10 Ibv=5m 
*         Nbv=25 Ibvl=1m Nbvl=200 
+         Tbv1=1m)
*
.model D2C512A  D(Is=31.47f Rs=9.494 Ikf=0 N=1 Xti=3 Eg=1.11 Cjo=220p M=.5959
+         Vj=.75 Fc=.5 Isr=2.035n Nr=2 Bv=12 Ibv=5m 
*         Nbv=25 Ibvl=1m Nbvl=200 
+         Tbv1=1m)
*
.model D2C515A  D(Is=31.47f Rs=9.494 Ikf=0 N=1 Xti=3 Eg=1.11 Cjo=220p M=.5959
+         Vj=.75 Fc=.5 Isr=2.035n Nr=2 Bv=15 Ibv=5m 
*         Nbv=25 Ibvl=1m Nbvl=200 
+         Tbv1=1m)
*
.model D2C518A  D(Is=31.47f Rs=9.494 Ikf=0 N=1 Xti=3 Eg=1.11 Cjo=220p M=.5959
+         Vj=.75 Fc=.5 Isr=2.035n Nr=2 Bv=18 Ibv=5m 
*         Nbv=25 Ibvl=1m Nbvl=200 
+         Tbv1=1m)
*
.model D2C522A  D(Is=31.47f Rs=9.494 Ikf=0 N=1 Xti=3 Eg=1.11 Cjo=220p M=.5959
+         Vj=.75 Fc=.5 Isr=2.035n Nr=2 Bv=22 Ibv=5m 
*         Nbv=25 Ibvl=1m Nbvl=200 
+         Tbv1=1m)
*
.model D2C524A  D(Is=31.47f Rs=9.494 Ikf=0 N=1 Xti=3 Eg=1.11 Cjo=220p M=.5959
+         Vj=.75 Fc=.5 Isr=2.035n Nr=2 Bv=24 Ibv=5m 
*         Nbv=30 Ibvl=1m Nbvl=200 
+         Tbv1=1m)
*
.model D2C527A  D(Is=31.47f Rs=9.494 Ikf=0 N=1 Xti=3 Eg=1.11 Cjo=220p M=.5959
+         Vj=.75 Fc=.5 Isr=2.035n Nr=2 Bv=27 Ibv=5m 
*         Nbv=40 Ibvl=1m Nbvl=200 
+         Tbv1=1m)
*
.model D2C530A  D(Is=31.47f Rs=9.494 Ikf=0 N=1 Xti=3 Eg=1.11 Cjo=220p M=.5959
+         Vj=.75 Fc=.5 Isr=2.035n Nr=2 Bv=30 Ibv=5m 
*         Nbv=45 Ibvl=1m Nbvl=200 
+         Tbv1=1m)
*
.model D2C536A  D(Is=31.47f Rs=9.494 Ikf=0 N=1 Xti=3 Eg=1.11 Cjo=220p M=.5959
+         Vj=.75 Fc=.5 Isr=2.035n Nr=2 Bv=36 Ibv=5m 
*         Nbv=50 Ibvl=1m Nbvl=200 
+         Tbv1=1m)
*
*** end of library file
_

*
* End of Library File