*****
* SOZ-1.LIB bnm soz
*****
*** Sozinov
.MODEL MP40_S PNP (IS=0.155U BF=30 VAF=40 IKF=300M ISE=10P NE=1 BR=3 VAR=5
+ IKR=10M ISC=100P NC=1.5 NK=500M RB=50 IRB=20M RC=1 VJE=450M MJE=334.185M
+ CJC=50P VJC=450M MJC=0.33 VJS=450M TF=53N XTF=300M VTF=100 ITF=100M TR=530N
+ EG=670M XTB=1)
.MODEL KT819A_So             NPN(IS=1E-10 ISE=123pA NE=1.5 ISC=1.2pA NC=1.533 BF=25
+                            IKF=10A VAF=70 CJC=360PF CJE=500PF VAR=100
+                            RB=.15 RE=.005 RC=.036 TF=24.6NS TR=2US)

.MODEL KT817A_So             NPN(IS=1E-10 ISE=12.3pA NE=1.5 ISC=1.2pA NC=1.533 BF=30
+                            IKF=3A VAF=85 CJC=260PF CJE=300PF VAR=100
+                            RB=.75 RE=.01 RC=.05 TF=24.6NS TR=2US)

.MODEL KT815A_So             NPN(IS=5E-11 ISE=133pA NE=1.65 ISC=12pA NC=1.753 BF=50
+                            IKF=1.5A VAF=100 CJC=160PF CJE=150PF VAR=100
+                            RB=.95 RE=.015 RC=.15 TF=24.6NS TR=2US)

.MODEL KT818A_So             PNP(IS=1E-10 ISE=123pA NE=1.5 ISC=1.2pA NC=1.533 BF=25
+                            IKF=10A VAF=70 CJC=360PF CJE=500PF VAR=100
+                            RB=.15 RE=.005 RC=.036 TF=24.6NS TR=2US)


.MODEL KT816A_So             PNP(IS=1E-10 ISE=12.3pA NE=1.5 ISC=1.2pA NC=1.533 BF=30
+                            IKF=3A VAF=85 CJC=260PF CJE=300PF VAR=100
+                            RB=.75 RE=.01 RC=.05 TF=24.6NS TR=2US)


.MODEL KT814A_So             PNP(IS=5E-11 ISE=133pA NE=1.65 ISC=12pA NC=1.753 BF=50
+                            IKF=1.5A VAF=100 CJC=160PF CJE=150PF VAR=100
+                            RB=.95 RE=.015 RC=.15 TF=24.6NS TR=2US)

